Circuit: * C:\Users\axu_n\OneDrive\Escritorio\UTN(2023)\TC2\Laboratorio (22-06)\simulacion_circuito_labo.asc

.OP point found by inspection.
Ignoring empty pin current: Ix(u2:1)
Ignoring empty pin current: Ix(u2:2)
Ignoring empty pin current: Ix(u3:1)
Ignoring empty pin current: Ix(u3:2)
Ignoring empty pin current: Ix(u4:1)
Ignoring empty pin current: Ix(u4:2)
Ignoring empty pin current: Ix(u2:1)
Ignoring empty pin current: Ix(u2:2)
Ignoring empty pin current: Ix(u3:1)
Ignoring empty pin current: Ix(u3:2)
Ignoring empty pin current: Ix(u4:1)
Ignoring empty pin current: Ix(u4:2)

Date: Mon Jun 26 18:29:41 2023
Total elapsed time: 0.179 seconds.

tnom = 27
temp = 27
method = trap
totiter = 0
traniter = 0
tranpoints = 0
accept = 0
rejected = 0
matrix size = 11
fillins = 11
solver = Normal
Avg thread counts: 12.0/0.0/0.0/1.0
Matrix Compiler1:      58 opcodes
Matrix Compiler2:      77 opcodes
