Circuit: * C:\Users\axu_n\OneDrive\Escritorio\UTN(2023)\TC2\Tareas Semanales\TS6\EJ1.asc

.OP point found by inspection.

Date: Sun Aug 20 13:02:12 2023
Total elapsed time: 0.015 seconds.

tnom = 27
temp = 27
method = trap
totiter = 0
traniter = 0
tranpoints = 0
accept = 0
rejected = 0
matrix size = 5
fillins = 2
solver = Normal
Avg thread counts: 12.0/0.0/0.0/1.4
Matrix Compiler1:      24 opcodes
Matrix Compiler2:      34 opcodes
