Circuit: * C:\Users\axu_n\OneDrive\Escritorio\UTN(2023)\TC2\Tareas Semanales\TS12\EJ2.asc

.OP point found by inspection.

Date: Fri Nov 10 19:10:59 2023
Total elapsed time: 0.012 seconds.

tnom = 27
temp = 27
method = trap
totiter = 0
traniter = 0
tranpoints = 0
accept = 0
rejected = 0
matrix size = 2
fillins = 0
solver = Normal
Avg thread counts: 12.0/0.0/0.0/3.4
Matrix Compiler1:       3 opcodes
Matrix Compiler2:      10 opcodes
