Circuit: * C:\Users\axu_n\OneDrive\Escritorio\UTN(2023)\TC2\Tareas Semanales\TS11\EJ2.asc

WARNING: Node N002 is floating.

.OP point found by inspection.

Date: Sun Oct 29 12:11:38 2023
Total elapsed time: 0.012 seconds.

tnom = 27
temp = 27
method = trap
totiter = 0
traniter = 0
tranpoints = 0
accept = 0
rejected = 0
matrix size = 5
fillins = 1
solver = Normal
Avg thread counts: 12.0/0.0/0.0/2.9
Matrix Compiler1:      12 opcodes
Matrix Compiler2:      28 opcodes
