Circuit: * C:\Users\axu_n\OneDrive\Escritorio\UTN(2023)\TC2\Tareas Semanales\TS6\Circuitos\TRAFO IDEAL\EJ1.asc

Fatal Error: t1: transmission line Z0 must be given
